logs/PSO_problema_chatGPT_2025-02-10_17-58-19.log
Iniciando PSO Híbrido con modo Cod_Tramos

Iniciando PSO híbrido

=========== Iteración 1 ==============

Actualizando partícula 1
fitValue: Inf

Actualizando partícula 2
fitValue: Inf

Actualizando partícula 3

Comprobación de potencias generadas y demandadas:
Pd: [0.3, 0.4, 0.2]
Qd: [0.0, 0.0, 0.0]
Pgen: [0.0, 0.5, 0.2]
Qgen: [0.0, 1.0, 1.0]

Potencias activas inyectadas reales:
Piny: [-0.3, 0.09999999999999998, 0.0]

Potencias reactivas inyectadas:
Qiny: [0.0, 1.0, 1.0]

====Iteración Newton-Raphson: 1 ====


Potencias inyectadas calculadas con las tensiones actuales:
U: ComplexF64[1.0 + 0.0im, 1.0 + 0.0im, 1.0 + 0.0im]
Piny_new: [0.0, 2.449293598294706e-15, 2.449293598294706e-15]
Qiny_new: [0.0, 0.0, 0.0]

Desbalances de potencias:
ΔPiny: [0.0, 0.09999999999999754, -2.449293598294706e-15]
ΔQiny: [0.0, 1.0, 1.0]

Desbalances de ángulos y tensiones (vector columna):
Δθ: [0.0067, 0.0033]
ΔV: [0.1, 0.1]

Tensiones actualizadas (módulos y ángulos):

====Iteración Newton-Raphson: 2 ====


Potencias inyectadas calculadas con las tensiones actuales:
U: ComplexF64[1.0 + 0.0im, 1.0999755556460906 + 0.007333279012466079im, 1.0999938888945475 + 0.0036666598765466665im]
Piny_new: [0.0, 0.11366604876668138, -0.0036666598765490747]
Qiny_new: [0.0, 1.1003116656990837, 1.1001283332144998]

Desbalances de potencias:
ΔPiny: [0.0, -0.013666048766681399, 0.0036666598765490747]
ΔQiny: [0.0, -0.10031166569908367, -0.10012833321449977]

Desbalances de ángulos y tensiones (vector columna):
Δθ: [-0.0006, -0.0002]
ΔV: [-0.0083, -0.0083]

Tensiones actualizadas (módulos y ángulos):

====Iteración Newton-Raphson: 3 ====


Potencias inyectadas calculadas con las tensiones actuales:
U: ComplexF64[1.0 + 0.0im, 1.091630376953985 + 0.006577402362897846im, 1.0916489794875026 + 0.0034295518899555653im]
Piny_new: [0.0, 0.10013813917618779, -6.859664764743189e-5]
Qiny_new: [0.0, 1.0007016274502076, 1.0006978847496029]

Desbalances de potencias:
ΔPiny: [0.0, -0.0001381391761878098, 6.859664764743189e-5]
ΔQiny: [0.0, -0.0007016274502076314, -0.0006978847496028617]

Desbalances de ángulos y tensiones (vector columna):
Δθ: [-0.0, -0.0]
ΔV: [-0.0001, -0.0001]

Tensiones actualizadas (módulos y ángulos):

====Iteración Newton-Raphson: 4 ====


Potencias inyectadas calculadas con las tensiones actuales:
U: ComplexF64[1.0 + 0.0im, 1.0915712639928197 + 0.006570736711812616im, 1.0915899281053485 + 0.0034292636355253703im]
Piny_new: [0.0, 0.10000001085464603, -7.381260048024484e-9]
Qiny_new: [0.0, 1.000000035465653, 1.0000000350264453]

Desbalances de potencias:
ΔPiny: [0.0, -1.085464605699027e-8, 7.381260048024484e-9]
ΔQiny: [0.0, -3.546565308099048e-8, -3.502644529973509e-8]

¡Convergencia alcanzada!

****Resultados finales****

1. Tensiones finales:
Nodo 1: V = 1.0∠0.0°
Nodo 2: V = 1.0916∠0.3438°
Nodo 3: V = 1.0916∠0.1776°

2. Potencias generadas por el slack:
Pgen_slack: 0.1999999965266223 p.u.
Qgen_slack: -1.8316119209816826 p.u.

3. Pérdidas totales:
P_totales: -3.473377724327875e-9 p.u.
Q_totales: 0.7641782445133785 p.u.

Violaciones de tensión: 0.0

Tensiones de la línea 1-2:

Corrientes de la línea 1-2:
I_1 = 0.9181∠94.1038°
I_2 = 0.9181∠-85.8962°

Potencias aparentes de la línea 1-2:
S_1 = -0.0657 - 0.9156999999999993im
S_2 = 0.0657 + 0.9999822979999992im

Violación de flujo en la línea 1-2: 0.0

Tensiones de la línea 1-3:

Corrientes de la línea 1-3:
I_1 = 0.9165∠92.1447°
I_3 = 0.9165∠-87.8553°

Potencias aparentes de la línea 1-3:
S_1 = -0.03429999999999999 - 0.9159000000000006im
S_3 = 0.03429999999999999 + 0.9999049300000007im

Violación de flujo en la línea 1-3: 0.0

Tensiones de la línea 2-3:

Corrientes de la línea 2-3:
I_2 = 4.4626∠62.7615°
I_3 = 3.1668∠16.8812°

Potencias aparentes de la línea 2-3:
S_2 = 2.2431911842709003 - 4.324134993096997im
S_3 = 3.3138298508785398 - 0.98388990334586im

Violación de flujo en la línea 2-3: 0.0

Pérdidas totales:
P_totales = 5.55702103514944
Q_totales = -5.139737668442857

Información de Generadores:
----------------------------

Generador 1:
Estado u: 0.7616
P inicial: 0.2 MW
Q inicial: -1.83 MVAr
Límites P: [10, 50] MW
Límites Q: [-100, 100] MVAr
P ajustada: 0.2 MW
Q ajustada: -1.83 MVAr
Estado: Encendido

Generador 2:
Estado u: 1.0
P inicial: 0.5 MW
Q inicial: 1.0 MVAr
Límites P: [10, 50] MW
Límites Q: [-100, 100] MVAr
P ajustada: 0.5 MW
Q ajustada: 1.0 MVAr
Estado: Encendido

Generador 3:
Estado u: 1.0
P inicial: 0.2 MW
Q inicial: 1.0 MVAr
Límites P: [5, 20] MW
Límites Q: [-100, 100] MVAr
P ajustada: 0.2 MW
Q ajustada: 1.0 MVAr
Estado: Encendido
fitValue: 35.99999993053245

Actualizando partícula 4
fitValue: Inf

Actualizando partícula 5
fitValue: Inf

Mejora encontrada: Inf

Mejor fitness actual: 35.56961945066809
Iteraciones sin mejora: 0

=========== Iteración 2 ==============

Actualizando partícula 1
fitValue: Inf

Actualizando partícula 2
fitValue: Inf

Actualizando partícula 3

Comprobación de potencias generadas y demandadas:
Pd: [0.3, 0.4, 0.2]
Qd: [0.0, 0.0, 0.0]
Pgen: [0.0, 0.5, 0.2]
Qgen: [0.0, 1.0, 1.0]

Potencias activas inyectadas reales:
Piny: [-0.3, 0.09999999999999998, 0.0]

Potencias reactivas inyectadas:
Qiny: [0.0, 1.0, 1.0]

====Iteración Newton-Raphson: 1 ====


Potencias inyectadas calculadas con las tensiones actuales:
U: ComplexF64[1.0 + 0.0im, 1.0 + 0.0im, 1.0 + 0.0im]
Piny_new: [0.0, 2.449293598294706e-15, 2.449293598294706e-15]
Qiny_new: [0.0, 0.0, 0.0]

Desbalances de potencias:
ΔPiny: [0.0, 0.09999999999999754, -2.449293598294706e-15]
ΔQiny: [0.0, 1.0, 1.0]

Desbalances de ángulos y tensiones (vector columna):
Δθ: [0.0067, 0.0033]
ΔV: [0.1, 0.1]

Tensiones actualizadas (módulos y ángulos):

====Iteración Newton-Raphson: 2 ====


Potencias inyectadas calculadas con las tensiones actuales:
U: ComplexF64[1.0 + 0.0im, 1.0999755556460906 + 0.007333279012466079im, 1.0999938888945475 + 0.0036666598765466665im]
Piny_new: [0.0, 0.11366604876668138, -0.0036666598765490747]
Qiny_new: [0.0, 1.1003116656990837, 1.1001283332144998]

Desbalances de potencias:
ΔPiny: [0.0, -0.013666048766681399, 0.0036666598765490747]
ΔQiny: [0.0, -0.10031166569908367, -0.10012833321449977]

Desbalances de ángulos y tensiones (vector columna):
Δθ: [-0.0006, -0.0002]
ΔV: [-0.0083, -0.0083]

Tensiones actualizadas (módulos y ángulos):

====Iteración Newton-Raphson: 3 ====


Potencias inyectadas calculadas con las tensiones actuales:
U: ComplexF64[1.0 + 0.0im, 1.091630376953985 + 0.006577402362897846im, 1.0916489794875026 + 0.0034295518899555653im]
Piny_new: [0.0, 0.10013813917618779, -6.859664764743189e-5]
Qiny_new: [0.0, 1.0007016274502076, 1.0006978847496029]

Desbalances de potencias:
ΔPiny: [0.0, -0.0001381391761878098, 6.859664764743189e-5]
ΔQiny: [0.0, -0.0007016274502076314, -0.0006978847496028617]

Desbalances de ángulos y tensiones (vector columna):
Δθ: [-0.0, -0.0]
ΔV: [-0.0001, -0.0001]

Tensiones actualizadas (módulos y ángulos):

====Iteración Newton-Raphson: 4 ====


Potencias inyectadas calculadas con las tensiones actuales:
U: ComplexF64[1.0 + 0.0im, 1.0915712639928197 + 0.006570736711812616im, 1.0915899281053485 + 0.0034292636355253703im]
Piny_new: [0.0, 0.10000001085464603, -7.381260048024484e-9]
Qiny_new: [0.0, 1.000000035465653, 1.0000000350264453]

Desbalances de potencias:
ΔPiny: [0.0, -1.085464605699027e-8, 7.381260048024484e-9]
ΔQiny: [0.0, -3.546565308099048e-8, -3.502644529973509e-8]

¡Convergencia alcanzada!

****Resultados finales****

1. Tensiones finales:
Nodo 1: V = 1.0∠0.0°
Nodo 2: V = 1.0916∠0.3438°
Nodo 3: V = 1.0916∠0.1776°

2. Potencias generadas por el slack:
Pgen_slack: 0.1999999965266223 p.u.
Qgen_slack: -1.8316119209816826 p.u.

3. Pérdidas totales:
P_totales: -3.473377724327875e-9 p.u.
Q_totales: 0.7641782445133785 p.u.

Violaciones de tensión: 0.0

Tensiones de la línea 1-2:

Corrientes de la línea 1-2:
I_1 = 0.9181∠94.1038°
I_2 = 0.9181∠-85.8962°

Potencias aparentes de la línea 1-2:
S_1 = -0.0657 - 0.9156999999999993im
S_2 = 0.0657 + 0.9999822979999992im

Violación de flujo en la línea 1-2: 0.0

Tensiones de la línea 1-3:

Corrientes de la línea 1-3:
I_1 = 0.9165∠92.1447°
I_3 = 0.9165∠-87.8553°

Potencias aparentes de la línea 1-3:
S_1 = -0.03429999999999999 - 0.9159000000000006im
S_3 = 0.03429999999999999 + 0.9999049300000007im

Violación de flujo en la línea 1-3: 0.0

Tensiones de la línea 2-3:

Corrientes de la línea 2-3:
I_2 = 4.4626∠62.7615°
I_3 = 3.1668∠16.8812°

Potencias aparentes de la línea 2-3:
S_2 = 2.2431911842709003 - 4.324134993096997im
S_3 = 3.3138298508785398 - 0.98388990334586im

Violación de flujo en la línea 2-3: 0.0

Pérdidas totales:
P_totales = 5.55702103514944
Q_totales = -5.139737668442857

Información de Generadores:
----------------------------

Generador 1:
Estado u: 0.989
P inicial: 0.2 MW
Q inicial: -1.83 MVAr
Límites P: [10, 50] MW
Límites Q: [-100, 100] MVAr
P ajustada: 0.2 MW
Q ajustada: -1.83 MVAr
Estado: Encendido

Generador 2:
Estado u: 1.0
P inicial: 0.5 MW
Q inicial: 1.0 MVAr
Límites P: [10, 50] MW
Límites Q: [-100, 100] MVAr
P ajustada: 0.5 MW
Q ajustada: 1.0 MVAr
Estado: Encendido

Generador 3:
Estado u: 1.0
P inicial: 0.2 MW
Q inicial: 1.0 MVAr
Límites P: [5, 20] MW
Límites Q: [-100, 100] MVAr
P ajustada: 0.2 MW
Q ajustada: 1.0 MVAr
Estado: Encendido
fitValue: 35.99999993053245

Actualizando partícula 4

Comprobación de potencias generadas y demandadas:
Pd: [0.3, 0.4, 0.2]
Qd: [0.0, 0.0, 0.0]
Pgen: [0.0, 0.486084249323569, 0.2]
Qgen: [0.0, 0.930421246617845, 1.0]

Potencias activas inyectadas reales:
Piny: [-0.3, 0.08608424932356895, 0.0]

Potencias reactivas inyectadas:
Qiny: [0.0, 0.930421246617845, 1.0]

====Iteración Newton-Raphson: 1 ====


Potencias inyectadas calculadas con las tensiones actuales:
U: ComplexF64[1.0 + 0.0im, 1.0 + 0.0im, 1.0 + 0.0im]
Piny_new: [0.0, 2.449293598294706e-15, 2.449293598294706e-15]
Qiny_new: [0.0, 0.0, 0.0]

Desbalances de potencias:
ΔPiny: [0.0, 0.08608424932356651, -2.449293598294706e-15]
ΔQiny: [0.0, 0.930421246617845, 1.0]

Desbalances de ángulos y tensiones (vector columna):
Δθ: [0.0057, 0.0029]
ΔV: [0.0954, 0.0977]

Tensiones actualizadas (módulos y ángulos):

====Iteración Newton-Raphson: 2 ====


Potencias inyectadas calculadas con las tensiones actuales:
U: ComplexF64[1.0 + 0.0im, 1.0953433783272186 + 0.006286189844840085im, 1.0976761891344329 + 0.0031497630030013937im]
Piny_new: [0.0, 0.09736318709262344, -0.003003658614202508]
Qiny_new: [0.0, 1.0193774160482092, 1.0977753994083967]

Desbalances de potencias:
ΔPiny: [0.0, -0.01127893776905449, 0.003003658614202508]
ΔQiny: [0.0, -0.08895616943036422, -0.09777539940839675]

Desbalances de ángulos y tensiones (vector columna):
Δθ: [-0.0005, -0.0002]
ΔV: [-0.0077, -0.0079]

Tensiones actualizadas (módulos y ángulos):

====Iteración Newton-Raphson: 3 ====


Potencias inyectadas calculadas con las tensiones actuales:
U: ComplexF64[1.0 + 0.0im, 1.0876442967695548 + 0.005661227122311554im, 1.0897344281804398 + 0.002952580631519619im]
Piny_new: [0.0, 0.08619103738619013, -5.295984787276588e-5]
Qiny_new: [0.0, 0.9309988377274524, 1.000651041743925]

Desbalances de potencias:
ΔPiny: [0.0, -0.00010678806262118257, 5.295984787276588e-5]
ΔQiny: [0.0, -0.0005775911096074227, -0.0006510417439249405]

Desbalances de ángulos y tensiones (vector columna):
Δθ: [-0.0, -0.0]
ΔV: [-0.0001, -0.0001]

Tensiones actualizadas (módulos y ángulos):

====Iteración Newton-Raphson: 4 ====


Potencias inyectadas calculadas con las tensiones actuales:
U: ComplexF64[1.0 + 0.0im, 1.0875932091775444 + 0.005656071161181219im, 1.0896812470728574 + 0.0029523540049547063im]
Piny_new: [0.0, 0.08608425670753203, -5.0461683266442155e-9]
Qiny_new: [0.0, 0.9304212719373279, 1.0000000295109719]

Desbalances de potencias:
ΔPiny: [0.0, -7.383963079865552e-9, 5.0461683266442155e-9]
ΔQiny: [0.0, -2.531948295469988e-8, -2.951097188841345e-8]

¡Convergencia alcanzada!

****Resultados finales****

1. Tensiones finales:
Nodo 1: V = 1.0∠0.0°
Nodo 2: V = 1.0876∠0.2979°
Nodo 3: V = 1.0897∠0.1547°

2. Potencias generadas por el slack:
Pgen_slack: 0.21391574833864452 p.u.
Qgen_slack: -1.772744562504018 p.u.

3. Pérdidas totales:
P_totales: -2.337786519923668e-9 p.u.
Q_totales: 0.7513836524220413 p.u.

Violaciones de tensión: 0.0

Tensiones de la línea 1-2:

Corrientes de la línea 1-2:
I_1 = 0.8777∠93.6973°
I_2 = 0.8777∠-86.3027°

Potencias aparentes de la línea 1-2:
S_1 = -0.05659999999999999 - 0.8758999999999997im
S_2 = 0.0566 + 0.9529404369999998im

Violación de flujo en la línea 1-2: 0.0

Tensiones de la línea 1-3:

Corrientes de la línea 1-3:
I_1 = 0.8973∠91.8841°
I_3 = 0.8973∠-88.1159°

Potencias aparentes de la línea 1-3:
S_1 = -0.029499999999999995 - 0.8967999999999989im
S_3 = 0.0295 + 0.9773120489999988im

Violación de flujo en la línea 1-3: 0.0

Tensiones de la línea 2-3:

Corrientes de la línea 2-3:
I_2 = 4.4383∠62.5654°
I_3 = 3.1573∠17.2166°

Potencias aparentes de la línea 2-3:
S_2 = 2.23990705292537 - 4.286420895582098im
S_3 = 3.2852437364755103 - 0.9992845998830849im

Violación de flujo en la línea 2-3: 0.0

Pérdidas totales:
P_totales = 5.525150789400881
Q_totales = -5.128153009465183

Información de Generadores:
----------------------------

Generador 1:
Estado u: 0.425
P inicial: 0.21 MW
Q inicial: -1.77 MVAr
Límites P: [10, 50] MW
Límites Q: [-100, 100] MVAr
P ajustada: 0.21 MW
Q ajustada: -1.77 MVAr
Estado: Encendido

Generador 2:
Estado u: 0.8722
P inicial: 0.49 MW
Q inicial: 0.93 MVAr
Límites P: [10, 50] MW
Límites Q: [-100, 100] MVAr
P ajustada: 0.49 MW
Q ajustada: 0.93 MVAr
Estado: Encendido

Generador 3:
Estado u: 1.0
P inicial: 0.2 MW
Q inicial: 1.0 MVAr
Límites P: [5, 20] MW
Límites Q: [-100, 100] MVAr
P ajustada: 0.2 MW
Q ajustada: 1.0 MVAr
Estado: Encendido
fitValue: 35.721684939715644

Actualizando partícula 5
fitValue: Inf

Mejor fitness actual: 35.56961945066809
Iteraciones sin mejora: 1

=========== Iteración 3 ==============

Actualizando partícula 1
fitValue: Inf

Actualizando partícula 2

Comprobación de potencias generadas y demandadas:
Pd: [0.3, 0.4, 0.2]
Qd: [0.0, 0.0, 0.0]
Pgen: [0.0, 0.5, 0.2]
Qgen: [0.0, 1.0, 1.0]

Potencias activas inyectadas reales:
Piny: [-0.3, 0.09999999999999998, 0.0]

Potencias reactivas inyectadas:
Qiny: [0.0, 1.0, 1.0]

====Iteración Newton-Raphson: 1 ====


Potencias inyectadas calculadas con las tensiones actuales:
U: ComplexF64[1.0 + 0.0im, 1.0 + 0.0im, 1.0 + 0.0im]
Piny_new: [0.0, 2.449293598294706e-15, 2.449293598294706e-15]
Qiny_new: [0.0, 0.0, 0.0]

Desbalances de potencias:
ΔPiny: [0.0, 0.09999999999999754, -2.449293598294706e-15]
ΔQiny: [0.0, 1.0, 1.0]

Desbalances de ángulos y tensiones (vector columna):
Δθ: [0.0067, 0.0033]
ΔV: [0.1, 0.1]

Tensiones actualizadas (módulos y ángulos):

====Iteración Newton-Raphson: 2 ====


Potencias inyectadas calculadas con las tensiones actuales:
U: ComplexF64[1.0 + 0.0im, 1.0999755556460906 + 0.007333279012466079im, 1.0999938888945475 + 0.0036666598765466665im]
Piny_new: [0.0, 0.11366604876668138, -0.0036666598765490747]
Qiny_new: [0.0, 1.1003116656990837, 1.1001283332144998]

Desbalances de potencias:
ΔPiny: [0.0, -0.013666048766681399, 0.0036666598765490747]
ΔQiny: [0.0, -0.10031166569908367, -0.10012833321449977]

Desbalances de ángulos y tensiones (vector columna):
Δθ: [-0.0006, -0.0002]
ΔV: [-0.0083, -0.0083]

Tensiones actualizadas (módulos y ángulos):

====Iteración Newton-Raphson: 3 ====


Potencias inyectadas calculadas con las tensiones actuales:
U: ComplexF64[1.0 + 0.0im, 1.091630376953985 + 0.006577402362897846im, 1.0916489794875026 + 0.0034295518899555653im]
Piny_new: [0.0, 0.10013813917618779, -6.859664764743189e-5]
Qiny_new: [0.0, 1.0007016274502076, 1.0006978847496029]

Desbalances de potencias:
ΔPiny: [0.0, -0.0001381391761878098, 6.859664764743189e-5]
ΔQiny: [0.0, -0.0007016274502076314, -0.0006978847496028617]

Desbalances de ángulos y tensiones (vector columna):
Δθ: [-0.0, -0.0]
ΔV: [-0.0001, -0.0001]

Tensiones actualizadas (módulos y ángulos):

====Iteración Newton-Raphson: 4 ====


Potencias inyectadas calculadas con las tensiones actuales:
U: ComplexF64[1.0 + 0.0im, 1.0915712639928197 + 0.006570736711812616im, 1.0915899281053485 + 0.0034292636355253703im]
Piny_new: [0.0, 0.10000001085464603, -7.381260048024484e-9]
Qiny_new: [0.0, 1.000000035465653, 1.0000000350264453]

Desbalances de potencias:
ΔPiny: [0.0, -1.085464605699027e-8, 7.381260048024484e-9]
ΔQiny: [0.0, -3.546565308099048e-8, -3.502644529973509e-8]

¡Convergencia alcanzada!

****Resultados finales****

1. Tensiones finales:
Nodo 1: V = 1.0∠0.0°
Nodo 2: V = 1.0916∠0.3438°
Nodo 3: V = 1.0916∠0.1776°

2. Potencias generadas por el slack:
Pgen_slack: 0.1999999965266223 p.u.
Qgen_slack: -1.8316119209816826 p.u.

3. Pérdidas totales:
P_totales: -3.473377724327875e-9 p.u.
Q_totales: 0.7641782445133785 p.u.

Violaciones de tensión: 0.0

Tensiones de la línea 1-2:

Corrientes de la línea 1-2:
I_1 = 0.9181∠94.1038°
I_2 = 0.9181∠-85.8962°

Potencias aparentes de la línea 1-2:
S_1 = -0.0657 - 0.9156999999999993im
S_2 = 0.0657 + 0.9999822979999992im

Violación de flujo en la línea 1-2: 0.0

Tensiones de la línea 1-3:

Corrientes de la línea 1-3:
I_1 = 0.9165∠92.1447°
I_3 = 0.9165∠-87.8553°

Potencias aparentes de la línea 1-3:
S_1 = -0.03429999999999999 - 0.9159000000000006im
S_3 = 0.03429999999999999 + 0.9999049300000007im

Violación de flujo en la línea 1-3: 0.0

Tensiones de la línea 2-3:

Corrientes de la línea 2-3:
I_2 = 4.4626∠62.7615°
I_3 = 3.1668∠16.8812°

Potencias aparentes de la línea 2-3:
S_2 = 2.2431911842709003 - 4.324134993096997im
S_3 = 3.3138298508785398 - 0.98388990334586im

Violación de flujo en la línea 2-3: 0.0

Pérdidas totales:
P_totales = 5.55702103514944
Q_totales = -5.139737668442857

Información de Generadores:
----------------------------

Generador 1:
Estado u: 0.7446
P inicial: 0.2 MW
Q inicial: -1.83 MVAr
Límites P: [10, 50] MW
Límites Q: [-100, 100] MVAr
P ajustada: 0.2 MW
Q ajustada: -1.83 MVAr
Estado: Encendido

Generador 2:
Estado u: 1.0
P inicial: 0.5 MW
Q inicial: 1.0 MVAr
Límites P: [10, 50] MW
Límites Q: [-100, 100] MVAr
P ajustada: 0.5 MW
Q ajustada: 1.0 MVAr
Estado: Encendido

Generador 3:
Estado u: 0.9557
P inicial: 0.2 MW
Q inicial: 1.0 MVAr
Límites P: [5, 20] MW
Límites Q: [-100, 100] MVAr
P ajustada: 0.2 MW
Q ajustada: 1.0 MVAr
Estado: Encendido
fitValue: 35.99999993053245

Actualizando partícula 3

Comprobación de potencias generadas y demandadas:
Pd: [0.3, 0.4, 0.2]
Qd: [0.0, 0.0, 0.0]
Pgen: [0.0, 0.5, 0.2]
Qgen: [0.0, 1.0, 1.0]

Potencias activas inyectadas reales:
Piny: [-0.3, 0.09999999999999998, 0.0]

Potencias reactivas inyectadas:
Qiny: [0.0, 1.0, 1.0]

====Iteración Newton-Raphson: 1 ====


Potencias inyectadas calculadas con las tensiones actuales:
U: ComplexF64[1.0 + 0.0im, 1.0 + 0.0im, 1.0 + 0.0im]
Piny_new: [0.0, 2.449293598294706e-15, 2.449293598294706e-15]
Qiny_new: [0.0, 0.0, 0.0]

Desbalances de potencias:
ΔPiny: [0.0, 0.09999999999999754, -2.449293598294706e-15]
ΔQiny: [0.0, 1.0, 1.0]

Desbalances de ángulos y tensiones (vector columna):
Δθ: [0.0067, 0.0033]
ΔV: [0.1, 0.1]

Tensiones actualizadas (módulos y ángulos):

====Iteración Newton-Raphson: 2 ====


Potencias inyectadas calculadas con las tensiones actuales:
U: ComplexF64[1.0 + 0.0im, 1.0999755556460906 + 0.007333279012466079im, 1.0999938888945475 + 0.0036666598765466665im]
Piny_new: [0.0, 0.11366604876668138, -0.0036666598765490747]
Qiny_new: [0.0, 1.1003116656990837, 1.1001283332144998]

Desbalances de potencias:
ΔPiny: [0.0, -0.013666048766681399, 0.0036666598765490747]
ΔQiny: [0.0, -0.10031166569908367, -0.10012833321449977]

Desbalances de ángulos y tensiones (vector columna):
Δθ: [-0.0006, -0.0002]
ΔV: [-0.0083, -0.0083]

Tensiones actualizadas (módulos y ángulos):

====Iteración Newton-Raphson: 3 ====


Potencias inyectadas calculadas con las tensiones actuales:
U: ComplexF64[1.0 + 0.0im, 1.091630376953985 + 0.006577402362897846im, 1.0916489794875026 + 0.0034295518899555653im]
Piny_new: [0.0, 0.10013813917618779, -6.859664764743189e-5]
Qiny_new: [0.0, 1.0007016274502076, 1.0006978847496029]

Desbalances de potencias:
ΔPiny: [0.0, -0.0001381391761878098, 6.859664764743189e-5]
ΔQiny: [0.0, -0.0007016274502076314, -0.0006978847496028617]

Desbalances de ángulos y tensiones (vector columna):
Δθ: [-0.0, -0.0]
ΔV: [-0.0001, -0.0001]

Tensiones actualizadas (módulos y ángulos):

====Iteración Newton-Raphson: 4 ====


Potencias inyectadas calculadas con las tensiones actuales:
U: ComplexF64[1.0 + 0.0im, 1.0915712639928197 + 0.006570736711812616im, 1.0915899281053485 + 0.0034292636355253703im]
Piny_new: [0.0, 0.10000001085464603, -7.381260048024484e-9]
Qiny_new: [0.0, 1.000000035465653, 1.0000000350264453]

Desbalances de potencias:
ΔPiny: [0.0, -1.085464605699027e-8, 7.381260048024484e-9]
ΔQiny: [0.0, -3.546565308099048e-8, -3.502644529973509e-8]

¡Convergencia alcanzada!

****Resultados finales****

1. Tensiones finales:
Nodo 1: V = 1.0∠0.0°
Nodo 2: V = 1.0916∠0.3438°
Nodo 3: V = 1.0916∠0.1776°

2. Potencias generadas por el slack:
Pgen_slack: 0.1999999965266223 p.u.
Qgen_slack: -1.8316119209816826 p.u.

3. Pérdidas totales:
P_totales: -3.473377724327875e-9 p.u.
Q_totales: 0.7641782445133785 p.u.

Violaciones de tensión: 0.0

Tensiones de la línea 1-2:

Corrientes de la línea 1-2:
I_1 = 0.9181∠94.1038°
I_2 = 0.9181∠-85.8962°

Potencias aparentes de la línea 1-2:
S_1 = -0.0657 - 0.9156999999999993im
S_2 = 0.0657 + 0.9999822979999992im

Violación de flujo en la línea 1-2: 0.0

Tensiones de la línea 1-3:

Corrientes de la línea 1-3:
I_1 = 0.9165∠92.1447°
I_3 = 0.9165∠-87.8553°

Potencias aparentes de la línea 1-3:
S_1 = -0.03429999999999999 - 0.9159000000000006im
S_3 = 0.03429999999999999 + 0.9999049300000007im

Violación de flujo en la línea 1-3: 0.0

Tensiones de la línea 2-3:

Corrientes de la línea 2-3:
I_2 = 4.4626∠62.7615°
I_3 = 3.1668∠16.8812°

Potencias aparentes de la línea 2-3:
S_2 = 2.2431911842709003 - 4.324134993096997im
S_3 = 3.3138298508785398 - 0.98388990334586im

Violación de flujo en la línea 2-3: 0.0

Pérdidas totales:
P_totales = 5.55702103514944
Q_totales = -5.139737668442857

Información de Generadores:
----------------------------

Generador 1:
Estado u: 0.3236
P inicial: 0.2 MW
Q inicial: -1.83 MVAr
Límites P: [10, 50] MW
Límites Q: [-100, 100] MVAr
P ajustada: 0.2 MW
Q ajustada: -1.83 MVAr
Estado: Encendido

Generador 2:
Estado u: 1.0
P inicial: 0.5 MW
Q inicial: 1.0 MVAr
Límites P: [10, 50] MW
Límites Q: [-100, 100] MVAr
P ajustada: 0.5 MW
Q ajustada: 1.0 MVAr
Estado: Encendido

Generador 3:
Estado u: 1.0
P inicial: 0.2 MW
Q inicial: 1.0 MVAr
Límites P: [5, 20] MW
Límites Q: [-100, 100] MVAr
P ajustada: 0.2 MW
Q ajustada: 1.0 MVAr
Estado: Encendido
fitValue: 35.99999993053245

Actualizando partícula 4

Comprobación de potencias generadas y demandadas:
Pd: [0.3, 0.4, 0.2]
Qd: [0.0, 0.0, 0.0]
Pgen: [0.0, 0.4806009470029302, 0.2]
Qgen: [0.0, 0.9030047350146512, 1.0]

Potencias activas inyectadas reales:
Piny: [-0.3, 0.08060094700293019, 0.0]

Potencias reactivas inyectadas:
Qiny: [0.0, 0.9030047350146512, 1.0]

====Iteración Newton-Raphson: 1 ====


Potencias inyectadas calculadas con las tensiones actuales:
U: ComplexF64[1.0 + 0.0im, 1.0 + 0.0im, 1.0 + 0.0im]
Piny_new: [0.0, 2.449293598294706e-15, 2.449293598294706e-15]
Qiny_new: [0.0, 0.0, 0.0]

Desbalances de potencias:
ΔPiny: [0.0, 0.08060094700292775, -2.449293598294706e-15]
ΔQiny: [0.0, 0.9030047350146512, 1.0]

Desbalances de ángulos y tensiones (vector columna):
Δθ: [0.0054, 0.0027]
ΔV: [0.0935, 0.0968]

Tensiones actualizadas (módulos y ángulos):

====Iteración Newton-Raphson: 2 ====


Potencias inyectadas calculadas con las tensiones actuales:
U: ComplexF64[1.0 + 0.0im, 1.0935178620274235 + 0.005875961569353077im, 1.0967628660808928 + 0.0029466779448437193im]
Piny_new: [0.0, 0.09098253054809294, -0.0027561354061192006]
Qiny_new: [0.0, 0.9876672193315105, 1.0968496953466873]

Desbalances de potencias:
ΔPiny: [0.0, -0.010381583545162748, 0.0027561354061192006]
ΔQiny: [0.0, -0.0846624843168593, -0.0968496953466873]

Desbalances de ángulos y tensiones (vector columna):
Δθ: [-0.0005, -0.0001]
ΔV: [-0.0075, -0.0078]

Tensiones actualizadas (módulos y ángulos):

====Iteración Newton-Raphson: 3 ====


Potencias inyectadas calculadas con las tensiones actuales:
U: ComplexF64[1.0 + 0.0im, 1.086065925174528 + 0.005300308852416658im, 1.0889764228300953 + 0.002764613698737304im]
Piny_new: [0.0, 0.08069667491946922, -4.744940792366458e-5]
Qiny_new: [0.0, 0.9035380956306434, 1.0006332284669632]

Desbalances de potencias:
ΔPiny: [0.0, -9.572791653902901e-5, 4.744940792366458e-5]
ΔQiny: [0.0, -0.0005333606159921844, -0.0006332284669632315]

Desbalances de ángulos y tensiones (vector columna):
Δθ: [-0.0, -0.0]
ΔV: [-0.0, -0.0001]

Tensiones actualizadas (módulos y ángulos):

====Iteración Newton-Raphson: 4 ====


Potencias inyectadas calculadas con las tensiones actuales:
U: ComplexF64[1.0 + 0.0im, 1.086017744914907 + 0.005295685818357436im, 1.0889254053055404 + 0.0027644090801575696im]
Piny_new: [0.0, 0.08060095329228306, -4.307129059546441e-9]
Qiny_new: [0.0, 0.9030047570935072, 1.0000000275681933]

Desbalances de potencias:
ΔPiny: [0.0, -6.2893528718355185e-9, 4.307129059546441e-9]
ΔQiny: [0.0, -2.207885607674598e-8, -2.7568193283755704e-8]

¡Convergencia alcanzada!

****Resultados finales****

1. Tensiones finales:
Nodo 1: V = 1.0∠0.0°
Nodo 2: V = 1.086∠0.2807°
Nodo 3: V = 1.0889∠0.1432°

2. Potencias generadas por el slack:
Pgen_slack: 0.2193990510148542 p.u.
Qgen_slack: -1.7494315022044749 p.u.

3. Pérdidas totales:
P_totales: -1.9822155861159985e-9 p.u.
Q_totales: 0.7464563229488752 p.u.

Violaciones de tensión: 0.0

Tensiones de la línea 1-2:

Corrientes de la línea 1-2:
I_1 = 0.8618∠93.5257°
I_2 = 0.8618∠-86.4743°

Potencias aparentes de la línea 1-2:
S_1 = -0.05299999999999999 - 0.860199999999999im
S_2 = 0.05299999999999999 + 0.9344753039999989im

Violación de flujo en la línea 1-2: 0.0

Tensiones de la línea 1-3:

Corrientes de la línea 1-3:
I_1 = 0.8897∠91.7776°
I_3 = 0.8897∠-88.2224°

Potencias aparentes de la línea 1-3:
S_1 = -0.027599999999999993 - 0.8892999999999986im
S_3 = 0.027599999999999993 + 0.9684616249999984im

Violación de flujo en la línea 1-3: 0.0

Tensiones de la línea 2-3:

Corrientes de la línea 2-3:
I_2 = 4.4288∠62.4872°
I_3 = 3.1536∠17.3499°

Potencias aparentes de la línea 2-3:
S_2 = 2.23863484138625 - 4.271563934712496im
S_3 = 3.27398762191992 - 1.0053549018512757im

Violación de flujo en la línea 2-3: 0.0

Pérdidas totales:
P_totales = 5.51262246330617
Q_totales = -5.1234819075637725

Información de Generadores:
----------------------------

Generador 1:
Estado u: 0.3757
P inicial: 0.22 MW
Q inicial: -1.75 MVAr
Límites P: [10, 50] MW
Límites Q: [-100, 100] MVAr
P ajustada: 0.22 MW
Q ajustada: -1.75 MVAr
Estado: Encendido

Generador 2:
Estado u: 0.8612
P inicial: 0.48 MW
Q inicial: 0.9 MVAr
Límites P: [10, 50] MW
Límites Q: [-100, 100] MVAr
P ajustada: 0.48 MW
Q ajustada: 0.9 MVAr
Estado: Encendido

Generador 3:
Estado u: 1.0
P inicial: 0.2 MW
Q inicial: 1.0 MVAr
Límites P: [5, 20] MW
Límites Q: [-100, 100] MVAr
P ajustada: 0.2 MW
Q ajustada: 1.0 MVAr
Estado: Encendido
fitValue: 35.61201890041429

Actualizando partícula 5
fitValue: Inf

Mejor fitness actual: 35.56961945066809
Iteraciones sin mejora: 2

=========== Iteración 4 ==============

Actualizando partícula 1
fitValue: Inf

Actualizando partícula 2

Comprobación de potencias generadas y demandadas:
Pd: [0.3, 0.4, 0.2]
Qd: [0.0, 0.0, 0.0]
Pgen: [0.0, 0.5, 0.2]
Qgen: [0.0, 1.0, 1.0]

Potencias activas inyectadas reales:
Piny: [-0.3, 0.09999999999999998, 0.0]

Potencias reactivas inyectadas:
Qiny: [0.0, 1.0, 1.0]

====Iteración Newton-Raphson: 1 ====


Potencias inyectadas calculadas con las tensiones actuales:
U: ComplexF64[1.0 + 0.0im, 1.0 + 0.0im, 1.0 + 0.0im]
Piny_new: [0.0, 2.449293598294706e-15, 2.449293598294706e-15]
Qiny_new: [0.0, 0.0, 0.0]

Desbalances de potencias:
ΔPiny: [0.0, 0.09999999999999754, -2.449293598294706e-15]
ΔQiny: [0.0, 1.0, 1.0]

Desbalances de ángulos y tensiones (vector columna):
Δθ: [0.0067, 0.0033]
ΔV: [0.1, 0.1]

Tensiones actualizadas (módulos y ángulos):

====Iteración Newton-Raphson: 2 ====


Potencias inyectadas calculadas con las tensiones actuales:
U: ComplexF64[1.0 + 0.0im, 1.0999755556460906 + 0.007333279012466079im, 1.0999938888945475 + 0.0036666598765466665im]
Piny_new: [0.0, 0.11366604876668138, -0.0036666598765490747]
Qiny_new: [0.0, 1.1003116656990837, 1.1001283332144998]

Desbalances de potencias:
ΔPiny: [0.0, -0.013666048766681399, 0.0036666598765490747]
ΔQiny: [0.0, -0.10031166569908367, -0.10012833321449977]

Desbalances de ángulos y tensiones (vector columna):
Δθ: [-0.0006, -0.0002]
ΔV: [-0.0083, -0.0083]

Tensiones actualizadas (módulos y ángulos):

====Iteración Newton-Raphson: 3 ====


Potencias inyectadas calculadas con las tensiones actuales:
U: ComplexF64[1.0 + 0.0im, 1.091630376953985 + 0.006577402362897846im, 1.0916489794875026 + 0.0034295518899555653im]
Piny_new: [0.0, 0.10013813917618779, -6.859664764743189e-5]
Qiny_new: [0.0, 1.0007016274502076, 1.0006978847496029]

Desbalances de potencias:
ΔPiny: [0.0, -0.0001381391761878098, 6.859664764743189e-5]
ΔQiny: [0.0, -0.0007016274502076314, -0.0006978847496028617]

Desbalances de ángulos y tensiones (vector columna):
Δθ: [-0.0, -0.0]
ΔV: [-0.0001, -0.0001]

Tensiones actualizadas (módulos y ángulos):

====Iteración Newton-Raphson: 4 ====


Potencias inyectadas calculadas con las tensiones actuales:
U: ComplexF64[1.0 + 0.0im, 1.0915712639928197 + 0.006570736711812616im, 1.0915899281053485 + 0.0034292636355253703im]
Piny_new: [0.0, 0.10000001085464603, -7.381260048024484e-9]
Qiny_new: [0.0, 1.000000035465653, 1.0000000350264453]

Desbalances de potencias:
ΔPiny: [0.0, -1.085464605699027e-8, 7.381260048024484e-9]
ΔQiny: [0.0, -3.546565308099048e-8, -3.502644529973509e-8]

¡Convergencia alcanzada!

****Resultados finales****

1. Tensiones finales:
Nodo 1: V = 1.0∠0.0°
Nodo 2: V = 1.0916∠0.3438°
Nodo 3: V = 1.0916∠0.1776°

2. Potencias generadas por el slack:
Pgen_slack: 0.1999999965266223 p.u.
Qgen_slack: -1.8316119209816826 p.u.

3. Pérdidas totales:
P_totales: -3.473377724327875e-9 p.u.
Q_totales: 0.7641782445133785 p.u.

Violaciones de tensión: 0.0

Tensiones de la línea 1-2:

Corrientes de la línea 1-2:
I_1 = 0.9181∠94.1038°
I_2 = 0.9181∠-85.8962°

Potencias aparentes de la línea 1-2:
S_1 = -0.0657 - 0.9156999999999993im
S_2 = 0.0657 + 0.9999822979999992im

Violación de flujo en la línea 1-2: 0.0

Tensiones de la línea 1-3:

Corrientes de la línea 1-3:
I_1 = 0.9165∠92.1447°
I_3 = 0.9165∠-87.8553°

Potencias aparentes de la línea 1-3:
S_1 = -0.03429999999999999 - 0.9159000000000006im
S_3 = 0.03429999999999999 + 0.9999049300000007im

Violación de flujo en la línea 1-3: 0.0

Tensiones de la línea 2-3:

Corrientes de la línea 2-3:
I_2 = 4.4626∠62.7615°
I_3 = 3.1668∠16.8812°

Potencias aparentes de la línea 2-3:
S_2 = 2.2431911842709003 - 4.324134993096997im
S_3 = 3.3138298508785398 - 0.98388990334586im

Violación de flujo en la línea 2-3: 0.0

Pérdidas totales:
P_totales = 5.55702103514944
Q_totales = -5.139737668442857

Información de Generadores:
----------------------------

Generador 1:
Estado u: 1.0
P inicial: 0.2 MW
Q inicial: -1.83 MVAr
Límites P: [10, 50] MW
Límites Q: [-100, 100] MVAr
P ajustada: 0.2 MW
Q ajustada: -1.83 MVAr
Estado: Encendido

Generador 2:
Estado u: 1.0
P inicial: 0.5 MW
Q inicial: 1.0 MVAr
Límites P: [10, 50] MW
Límites Q: [-100, 100] MVAr
P ajustada: 0.5 MW
Q ajustada: 1.0 MVAr
Estado: Encendido

Generador 3:
Estado u: 1.0
P inicial: 0.2 MW
Q inicial: 1.0 MVAr
Límites P: [5, 20] MW
Límites Q: [-100, 100] MVAr
P ajustada: 0.2 MW
Q ajustada: 1.0 MVAr
Estado: Encendido
fitValue: 35.99999993053245

Actualizando partícula 3

Comprobación de potencias generadas y demandadas:
Pd: [0.3, 0.4, 0.2]
Qd: [0.0, 0.0, 0.0]
Pgen: [0.0, 0.5, 0.2]
Qgen: [0.0, 1.0, 1.0]

Potencias activas inyectadas reales:
Piny: [-0.3, 0.09999999999999998, 0.0]

Potencias reactivas inyectadas:
Qiny: [0.0, 1.0, 1.0]

====Iteración Newton-Raphson: 1 ====


Potencias inyectadas calculadas con las tensiones actuales:
U: ComplexF64[1.0 + 0.0im, 1.0 + 0.0im, 1.0 + 0.0im]
Piny_new: [0.0, 2.449293598294706e-15, 2.449293598294706e-15]
Qiny_new: [0.0, 0.0, 0.0]

Desbalances de potencias:
ΔPiny: [0.0, 0.09999999999999754, -2.449293598294706e-15]
ΔQiny: [0.0, 1.0, 1.0]

Desbalances de ángulos y tensiones (vector columna):
Δθ: [0.0067, 0.0033]
ΔV: [0.1, 0.1]

Tensiones actualizadas (módulos y ángulos):

====Iteración Newton-Raphson: 2 ====


Potencias inyectadas calculadas con las tensiones actuales:
U: ComplexF64[1.0 + 0.0im, 1.0999755556460906 + 0.007333279012466079im, 1.0999938888945475 + 0.0036666598765466665im]
Piny_new: [0.0, 0.11366604876668138, -0.0036666598765490747]
Qiny_new: [0.0, 1.1003116656990837, 1.1001283332144998]

Desbalances de potencias:
ΔPiny: [0.0, -0.013666048766681399, 0.0036666598765490747]
ΔQiny: [0.0, -0.10031166569908367, -0.10012833321449977]

Desbalances de ángulos y tensiones (vector columna):
Δθ: [-0.0006, -0.0002]
ΔV: [-0.0083, -0.0083]

Tensiones actualizadas (módulos y ángulos):

====Iteración Newton-Raphson: 3 ====


Potencias inyectadas calculadas con las tensiones actuales:
U: ComplexF64[1.0 + 0.0im, 1.091630376953985 + 0.006577402362897846im, 1.0916489794875026 + 0.0034295518899555653im]
Piny_new: [0.0, 0.10013813917618779, -6.859664764743189e-5]
Qiny_new: [0.0, 1.0007016274502076, 1.0006978847496029]

Desbalances de potencias:
ΔPiny: [0.0, -0.0001381391761878098, 6.859664764743189e-5]
ΔQiny: [0.0, -0.0007016274502076314, -0.0006978847496028617]

Desbalances de ángulos y tensiones (vector columna):
Δθ: [-0.0, -0.0]
ΔV: [-0.0001, -0.0001]

Tensiones actualizadas (módulos y ángulos):

====Iteración Newton-Raphson: 4 ====


Potencias inyectadas calculadas con las tensiones actuales:
U: ComplexF64[1.0 + 0.0im, 1.0915712639928197 + 0.006570736711812616im, 1.0915899281053485 + 0.0034292636355253703im]
Piny_new: [0.0, 0.10000001085464603, -7.381260048024484e-9]
Qiny_new: [0.0, 1.000000035465653, 1.0000000350264453]

Desbalances de potencias:
ΔPiny: [0.0, -1.085464605699027e-8, 7.381260048024484e-9]
ΔQiny: [0.0, -3.546565308099048e-8, -3.502644529973509e-8]

¡Convergencia alcanzada!

****Resultados finales****

1. Tensiones finales:
Nodo 1: V = 1.0∠0.0°
Nodo 2: V = 1.0916∠0.3438°
Nodo 3: V = 1.0916∠0.1776°

2. Potencias generadas por el slack:
Pgen_slack: 0.1999999965266223 p.u.
Qgen_slack: -1.8316119209816826 p.u.

3. Pérdidas totales:
P_totales: -3.473377724327875e-9 p.u.
Q_totales: 0.7641782445133785 p.u.

Violaciones de tensión: 0.0

Tensiones de la línea 1-2:

Corrientes de la línea 1-2:
I_1 = 0.9181∠94.1038°
I_2 = 0.9181∠-85.8962°

Potencias aparentes de la línea 1-2:
S_1 = -0.0657 - 0.9156999999999993im
S_2 = 0.0657 + 0.9999822979999992im

Violación de flujo en la línea 1-2: 0.0

Tensiones de la línea 1-3:

Corrientes de la línea 1-3:
I_1 = 0.9165∠92.1447°
I_3 = 0.9165∠-87.8553°

Potencias aparentes de la línea 1-3:
S_1 = -0.03429999999999999 - 0.9159000000000006im
S_3 = 0.03429999999999999 + 0.9999049300000007im

Violación de flujo en la línea 1-3: 0.0

Tensiones de la línea 2-3:

Corrientes de la línea 2-3:
I_2 = 4.4626∠62.7615°
I_3 = 3.1668∠16.8812°

Potencias aparentes de la línea 2-3:
S_2 = 2.2431911842709003 - 4.324134993096997im
S_3 = 3.3138298508785398 - 0.98388990334586im

Violación de flujo en la línea 2-3: 0.0

Pérdidas totales:
P_totales = 5.55702103514944
Q_totales = -5.139737668442857

Información de Generadores:
----------------------------

Generador 1:
Estado u: 0.4149
P inicial: 0.2 MW
Q inicial: -1.83 MVAr
Límites P: [10, 50] MW
Límites Q: [-100, 100] MVAr
P ajustada: 0.2 MW
Q ajustada: -1.83 MVAr
Estado: Encendido

Generador 2:
Estado u: 1.0
P inicial: 0.5 MW
Q inicial: 1.0 MVAr
Límites P: [10, 50] MW
Límites Q: [-100, 100] MVAr
P ajustada: 0.5 MW
Q ajustada: 1.0 MVAr
Estado: Encendido

Generador 3:
Estado u: 1.0
P inicial: 0.2 MW
Q inicial: 1.0 MVAr
Límites P: [5, 20] MW
Límites Q: [-100, 100] MVAr
P ajustada: 0.2 MW
Q ajustada: 1.0 MVAr
Estado: Encendido
fitValue: 35.99999993053245

Actualizando partícula 4
fitValue: Inf

Actualizando partícula 5
fitValue: Inf

Mejor fitness actual: 35.56961945066809
Iteraciones sin mejora: 3

=========== Iteración 5 ==============

Actualizando partícula 1

Comprobación de potencias generadas y demandadas:
Pd: [0.3, 0.4, 0.2]
Qd: [0.0, 0.0, 0.0]
Pgen: [0.0, 0.5, 0.2]
Qgen: [0.0, 1.0, 1.0]

Potencias activas inyectadas reales:
Piny: [-0.3, 0.09999999999999998, 0.0]

Potencias reactivas inyectadas:
Qiny: [0.0, 1.0, 1.0]

====Iteración Newton-Raphson: 1 ====


Potencias inyectadas calculadas con las tensiones actuales:
U: ComplexF64[1.0 + 0.0im, 1.0 + 0.0im, 1.0 + 0.0im]
Piny_new: [0.0, 2.449293598294706e-15, 2.449293598294706e-15]
Qiny_new: [0.0, 0.0, 0.0]

Desbalances de potencias:
ΔPiny: [0.0, 0.09999999999999754, -2.449293598294706e-15]
ΔQiny: [0.0, 1.0, 1.0]

Desbalances de ángulos y tensiones (vector columna):
Δθ: [0.0067, 0.0033]
ΔV: [0.1, 0.1]

Tensiones actualizadas (módulos y ángulos):

====Iteración Newton-Raphson: 2 ====


Potencias inyectadas calculadas con las tensiones actuales:
U: ComplexF64[1.0 + 0.0im, 1.0999755556460906 + 0.007333279012466079im, 1.0999938888945475 + 0.0036666598765466665im]
Piny_new: [0.0, 0.11366604876668138, -0.0036666598765490747]
Qiny_new: [0.0, 1.1003116656990837, 1.1001283332144998]

Desbalances de potencias:
ΔPiny: [0.0, -0.013666048766681399, 0.0036666598765490747]
ΔQiny: [0.0, -0.10031166569908367, -0.10012833321449977]

Desbalances de ángulos y tensiones (vector columna):
Δθ: [-0.0006, -0.0002]
ΔV: [-0.0083, -0.0083]

Tensiones actualizadas (módulos y ángulos):

====Iteración Newton-Raphson: 3 ====


Potencias inyectadas calculadas con las tensiones actuales:
U: ComplexF64[1.0 + 0.0im, 1.091630376953985 + 0.006577402362897846im, 1.0916489794875026 + 0.0034295518899555653im]
Piny_new: [0.0, 0.10013813917618779, -6.859664764743189e-5]
Qiny_new: [0.0, 1.0007016274502076, 1.0006978847496029]

Desbalances de potencias:
ΔPiny: [0.0, -0.0001381391761878098, 6.859664764743189e-5]
ΔQiny: [0.0, -0.0007016274502076314, -0.0006978847496028617]

Desbalances de ángulos y tensiones (vector columna):
Δθ: [-0.0, -0.0]
ΔV: [-0.0001, -0.0001]

Tensiones actualizadas (módulos y ángulos):

====Iteración Newton-Raphson: 4 ====


Potencias inyectadas calculadas con las tensiones actuales:
U: ComplexF64[1.0 + 0.0im, 1.0915712639928197 + 0.006570736711812616im, 1.0915899281053485 + 0.0034292636355253703im]
Piny_new: [0.0, 0.10000001085464603, -7.381260048024484e-9]
Qiny_new: [0.0, 1.000000035465653, 1.0000000350264453]

Desbalances de potencias:
ΔPiny: [0.0, -1.085464605699027e-8, 7.381260048024484e-9]
ΔQiny: [0.0, -3.546565308099048e-8, -3.502644529973509e-8]

¡Convergencia alcanzada!

****Resultados finales****

1. Tensiones finales:
Nodo 1: V = 1.0∠0.0°
Nodo 2: V = 1.0916∠0.3438°
Nodo 3: V = 1.0916∠0.1776°

2. Potencias generadas por el slack:
Pgen_slack: 0.1999999965266223 p.u.
Qgen_slack: -1.8316119209816826 p.u.

3. Pérdidas totales:
P_totales: -3.473377724327875e-9 p.u.
Q_totales: 0.7641782445133785 p.u.

Violaciones de tensión: 0.0

Tensiones de la línea 1-2:

Corrientes de la línea 1-2:
I_1 = 0.9181∠94.1038°
I_2 = 0.9181∠-85.8962°

Potencias aparentes de la línea 1-2:
S_1 = -0.0657 - 0.9156999999999993im
S_2 = 0.0657 + 0.9999822979999992im

Violación de flujo en la línea 1-2: 0.0

Tensiones de la línea 1-3:

Corrientes de la línea 1-3:
I_1 = 0.9165∠92.1447°
I_3 = 0.9165∠-87.8553°

Potencias aparentes de la línea 1-3:
S_1 = -0.03429999999999999 - 0.9159000000000006im
S_3 = 0.03429999999999999 + 0.9999049300000007im

Violación de flujo en la línea 1-3: 0.0

Tensiones de la línea 2-3:

Corrientes de la línea 2-3:
I_2 = 4.4626∠62.7615°
I_3 = 3.1668∠16.8812°

Potencias aparentes de la línea 2-3:
S_2 = 2.2431911842709003 - 4.324134993096997im
S_3 = 3.3138298508785398 - 0.98388990334586im

Violación de flujo en la línea 2-3: 0.0

Pérdidas totales:
P_totales = 5.55702103514944
Q_totales = -5.139737668442857

Información de Generadores:
----------------------------

Generador 1:
Estado u: 0.8543
P inicial: 0.2 MW
Q inicial: -1.83 MVAr
Límites P: [10, 50] MW
Límites Q: [-100, 100] MVAr
P ajustada: 0.2 MW
Q ajustada: -1.83 MVAr
Estado: Encendido

Generador 2:
Estado u: 1.0
P inicial: 0.5 MW
Q inicial: 1.0 MVAr
Límites P: [10, 50] MW
Límites Q: [-100, 100] MVAr
P ajustada: 0.5 MW
Q ajustada: 1.0 MVAr
Estado: Encendido

Generador 3:
Estado u: 1.0
P inicial: 0.2 MW
Q inicial: 1.0 MVAr
Límites P: [5, 20] MW
Límites Q: [-100, 100] MVAr
P ajustada: 0.2 MW
Q ajustada: 1.0 MVAr
Estado: Encendido
fitValue: 35.99999993053245

Actualizando partícula 2

Comprobación de potencias generadas y demandadas:
Pd: [0.3, 0.4, 0.2]
Qd: [0.0, 0.0, 0.0]
Pgen: [0.0, 0.5, 0.2]
Qgen: [0.0, 1.0, 1.0]

Potencias activas inyectadas reales:
Piny: [-0.3, 0.09999999999999998, 0.0]

Potencias reactivas inyectadas:
Qiny: [0.0, 1.0, 1.0]

====Iteración Newton-Raphson: 1 ====


Potencias inyectadas calculadas con las tensiones actuales:
U: ComplexF64[1.0 + 0.0im, 1.0 + 0.0im, 1.0 + 0.0im]
Piny_new: [0.0, 2.449293598294706e-15, 2.449293598294706e-15]
Qiny_new: [0.0, 0.0, 0.0]

Desbalances de potencias:
ΔPiny: [0.0, 0.09999999999999754, -2.449293598294706e-15]
ΔQiny: [0.0, 1.0, 1.0]

Desbalances de ángulos y tensiones (vector columna):
Δθ: [0.0067, 0.0033]
ΔV: [0.1, 0.1]

Tensiones actualizadas (módulos y ángulos):

====Iteración Newton-Raphson: 2 ====


Potencias inyectadas calculadas con las tensiones actuales:
U: ComplexF64[1.0 + 0.0im, 1.0999755556460906 + 0.007333279012466079im, 1.0999938888945475 + 0.0036666598765466665im]
Piny_new: [0.0, 0.11366604876668138, -0.0036666598765490747]
Qiny_new: [0.0, 1.1003116656990837, 1.1001283332144998]

Desbalances de potencias:
ΔPiny: [0.0, -0.013666048766681399, 0.0036666598765490747]
ΔQiny: [0.0, -0.10031166569908367, -0.10012833321449977]

Desbalances de ángulos y tensiones (vector columna):
Δθ: [-0.0006, -0.0002]
ΔV: [-0.0083, -0.0083]

Tensiones actualizadas (módulos y ángulos):

====Iteración Newton-Raphson: 3 ====


Potencias inyectadas calculadas con las tensiones actuales:
U: ComplexF64[1.0 + 0.0im, 1.091630376953985 + 0.006577402362897846im, 1.0916489794875026 + 0.0034295518899555653im]
Piny_new: [0.0, 0.10013813917618779, -6.859664764743189e-5]
Qiny_new: [0.0, 1.0007016274502076, 1.0006978847496029]

Desbalances de potencias:
ΔPiny: [0.0, -0.0001381391761878098, 6.859664764743189e-5]
ΔQiny: [0.0, -0.0007016274502076314, -0.0006978847496028617]

Desbalances de ángulos y tensiones (vector columna):
Δθ: [-0.0, -0.0]
ΔV: [-0.0001, -0.0001]

Tensiones actualizadas (módulos y ángulos):

====Iteración Newton-Raphson: 4 ====


Potencias inyectadas calculadas con las tensiones actuales:
U: ComplexF64[1.0 + 0.0im, 1.0915712639928197 + 0.006570736711812616im, 1.0915899281053485 + 0.0034292636355253703im]
Piny_new: [0.0, 0.10000001085464603, -7.381260048024484e-9]
Qiny_new: [0.0, 1.000000035465653, 1.0000000350264453]

Desbalances de potencias:
ΔPiny: [0.0, -1.085464605699027e-8, 7.381260048024484e-9]
ΔQiny: [0.0, -3.546565308099048e-8, -3.502644529973509e-8]

¡Convergencia alcanzada!

****Resultados finales****

1. Tensiones finales:
Nodo 1: V = 1.0∠0.0°
Nodo 2: V = 1.0916∠0.3438°
Nodo 3: V = 1.0916∠0.1776°

2. Potencias generadas por el slack:
Pgen_slack: 0.1999999965266223 p.u.
Qgen_slack: -1.8316119209816826 p.u.

3. Pérdidas totales:
P_totales: -3.473377724327875e-9 p.u.
Q_totales: 0.7641782445133785 p.u.

Violaciones de tensión: 0.0

Tensiones de la línea 1-2:

Corrientes de la línea 1-2:
I_1 = 0.9181∠94.1038°
I_2 = 0.9181∠-85.8962°

Potencias aparentes de la línea 1-2:
S_1 = -0.0657 - 0.9156999999999993im
S_2 = 0.0657 + 0.9999822979999992im

Violación de flujo en la línea 1-2: 0.0

Tensiones de la línea 1-3:

Corrientes de la línea 1-3:
I_1 = 0.9165∠92.1447°
I_3 = 0.9165∠-87.8553°

Potencias aparentes de la línea 1-3:
S_1 = -0.03429999999999999 - 0.9159000000000006im
S_3 = 0.03429999999999999 + 0.9999049300000007im

Violación de flujo en la línea 1-3: 0.0

Tensiones de la línea 2-3:

Corrientes de la línea 2-3:
I_2 = 4.4626∠62.7615°
I_3 = 3.1668∠16.8812°

Potencias aparentes de la línea 2-3:
S_2 = 2.2431911842709003 - 4.324134993096997im
S_3 = 3.3138298508785398 - 0.98388990334586im

Violación de flujo en la línea 2-3: 0.0

Pérdidas totales:
P_totales = 5.55702103514944
Q_totales = -5.139737668442857

Información de Generadores:
----------------------------

Generador 1:
Estado u: 1.0
P inicial: 0.2 MW
Q inicial: -1.83 MVAr
Límites P: [10, 50] MW
Límites Q: [-100, 100] MVAr
P ajustada: 0.2 MW
Q ajustada: -1.83 MVAr
Estado: Encendido

Generador 2:
Estado u: 1.0
P inicial: 0.5 MW
Q inicial: 1.0 MVAr
Límites P: [10, 50] MW
Límites Q: [-100, 100] MVAr
P ajustada: 0.5 MW
Q ajustada: 1.0 MVAr
Estado: Encendido

Generador 3:
Estado u: 1.0
P inicial: 0.2 MW
Q inicial: 1.0 MVAr
Límites P: [5, 20] MW
Límites Q: [-100, 100] MVAr
P ajustada: 0.2 MW
Q ajustada: 1.0 MVAr
Estado: Encendido
fitValue: 35.99999993053245

Actualizando partícula 3

Comprobación de potencias generadas y demandadas:
Pd: [0.3, 0.4, 0.2]
Qd: [0.0, 0.0, 0.0]
Pgen: [0.0, 0.5, 0.2]
Qgen: [0.0, 1.0, 1.0]

Potencias activas inyectadas reales:
Piny: [-0.3, 0.09999999999999998, 0.0]

Potencias reactivas inyectadas:
Qiny: [0.0, 1.0, 1.0]

====Iteración Newton-Raphson: 1 ====


Potencias inyectadas calculadas con las tensiones actuales:
U: ComplexF64[1.0 + 0.0im, 1.0 + 0.0im, 1.0 + 0.0im]
Piny_new: [0.0, 2.449293598294706e-15, 2.449293598294706e-15]
Qiny_new: [0.0, 0.0, 0.0]

Desbalances de potencias:
ΔPiny: [0.0, 0.09999999999999754, -2.449293598294706e-15]
ΔQiny: [0.0, 1.0, 1.0]

Desbalances de ángulos y tensiones (vector columna):
Δθ: [0.0067, 0.0033]
ΔV: [0.1, 0.1]

Tensiones actualizadas (módulos y ángulos):

====Iteración Newton-Raphson: 2 ====


Potencias inyectadas calculadas con las tensiones actuales:
U: ComplexF64[1.0 + 0.0im, 1.0999755556460906 + 0.007333279012466079im, 1.0999938888945475 + 0.0036666598765466665im]
Piny_new: [0.0, 0.11366604876668138, -0.0036666598765490747]
Qiny_new: [0.0, 1.1003116656990837, 1.1001283332144998]

Desbalances de potencias:
ΔPiny: [0.0, -0.013666048766681399, 0.0036666598765490747]
ΔQiny: [0.0, -0.10031166569908367, -0.10012833321449977]

Desbalances de ángulos y tensiones (vector columna):
Δθ: [-0.0006, -0.0002]
ΔV: [-0.0083, -0.0083]

Tensiones actualizadas (módulos y ángulos):

====Iteración Newton-Raphson: 3 ====


Potencias inyectadas calculadas con las tensiones actuales:
U: ComplexF64[1.0 + 0.0im, 1.091630376953985 + 0.006577402362897846im, 1.0916489794875026 + 0.0034295518899555653im]
Piny_new: [0.0, 0.10013813917618779, -6.859664764743189e-5]
Qiny_new: [0.0, 1.0007016274502076, 1.0006978847496029]

Desbalances de potencias:
ΔPiny: [0.0, -0.0001381391761878098, 6.859664764743189e-5]
ΔQiny: [0.0, -0.0007016274502076314, -0.0006978847496028617]

Desbalances de ángulos y tensiones (vector columna):
Δθ: [-0.0, -0.0]
ΔV: [-0.0001, -0.0001]

Tensiones actualizadas (módulos y ángulos):

====Iteración Newton-Raphson: 4 ====


Potencias inyectadas calculadas con las tensiones actuales:
U: ComplexF64[1.0 + 0.0im, 1.0915712639928197 + 0.006570736711812616im, 1.0915899281053485 + 0.0034292636355253703im]
Piny_new: [0.0, 0.10000001085464603, -7.381260048024484e-9]
Qiny_new: [0.0, 1.000000035465653, 1.0000000350264453]

Desbalances de potencias:
ΔPiny: [0.0, -1.085464605699027e-8, 7.381260048024484e-9]
ΔQiny: [0.0, -3.546565308099048e-8, -3.502644529973509e-8]

¡Convergencia alcanzada!

****Resultados finales****

1. Tensiones finales:
Nodo 1: V = 1.0∠0.0°
Nodo 2: V = 1.0916∠0.3438°
Nodo 3: V = 1.0916∠0.1776°

2. Potencias generadas por el slack:
Pgen_slack: 0.1999999965266223 p.u.
Qgen_slack: -1.8316119209816826 p.u.

3. Pérdidas totales:
P_totales: -3.473377724327875e-9 p.u.
Q_totales: 0.7641782445133785 p.u.

Violaciones de tensión: 0.0

Tensiones de la línea 1-2:

Corrientes de la línea 1-2:
I_1 = 0.9181∠94.1038°
I_2 = 0.9181∠-85.8962°

Potencias aparentes de la línea 1-2:
S_1 = -0.0657 - 0.9156999999999993im
S_2 = 0.0657 + 0.9999822979999992im

Violación de flujo en la línea 1-2: 0.0

Tensiones de la línea 1-3:

Corrientes de la línea 1-3:
I_1 = 0.9165∠92.1447°
I_3 = 0.9165∠-87.8553°

Potencias aparentes de la línea 1-3:
S_1 = -0.03429999999999999 - 0.9159000000000006im
S_3 = 0.03429999999999999 + 0.9999049300000007im

Violación de flujo en la línea 1-3: 0.0

Tensiones de la línea 2-3:

Corrientes de la línea 2-3:
I_2 = 4.4626∠62.7615°
I_3 = 3.1668∠16.8812°

Potencias aparentes de la línea 2-3:
S_2 = 2.2431911842709003 - 4.324134993096997im
S_3 = 3.3138298508785398 - 0.98388990334586im

Violación de flujo en la línea 2-3: 0.0

Pérdidas totales:
P_totales = 5.55702103514944
Q_totales = -5.139737668442857

Información de Generadores:
----------------------------

Generador 1:
Estado u: 1.0
P inicial: 0.2 MW
Q inicial: -1.83 MVAr
Límites P: [10, 50] MW
Límites Q: [-100, 100] MVAr
P ajustada: 0.2 MW
Q ajustada: -1.83 MVAr
Estado: Encendido

Generador 2:
Estado u: 1.0
P inicial: 0.5 MW
Q inicial: 1.0 MVAr
Límites P: [10, 50] MW
Límites Q: [-100, 100] MVAr
P ajustada: 0.5 MW
Q ajustada: 1.0 MVAr
Estado: Encendido

Generador 3:
Estado u: 1.0
P inicial: 0.2 MW
Q inicial: 1.0 MVAr
Límites P: [5, 20] MW
Límites Q: [-100, 100] MVAr
P ajustada: 0.2 MW
Q ajustada: 1.0 MVAr
Estado: Encendido
fitValue: 35.99999993053245

Actualizando partícula 4
fitValue: Inf

Actualizando partícula 5

Comprobación de potencias generadas y demandadas:
Pd: [0.3, 0.4, 0.2]
Qd: [0.0, 0.0, 0.0]
Pgen: [0.0, 0.4893449547426048, 0.2]
Qgen: [0.0, 0.9467247737130242, 1.0]

Potencias activas inyectadas reales:
Piny: [-0.3, 0.08934495474260479, 0.0]

Potencias reactivas inyectadas:
Qiny: [0.0, 0.9467247737130242, 1.0]

====Iteración Newton-Raphson: 1 ====


Potencias inyectadas calculadas con las tensiones actuales:
U: ComplexF64[1.0 + 0.0im, 1.0 + 0.0im, 1.0 + 0.0im]
Piny_new: [0.0, 2.449293598294706e-15, 2.449293598294706e-15]
Qiny_new: [0.0, 0.0, 0.0]

Desbalances de potencias:
ΔPiny: [0.0, 0.08934495474260234, -2.449293598294706e-15]
ΔQiny: [0.0, 0.9467247737130242, 1.0]

Desbalances de ángulos y tensiones (vector columna):
Δθ: [0.006, 0.003]
ΔV: [0.0964, 0.0982]

Tensiones actualizadas (módulos y ángulos):

====Iteración Newton-Raphson: 2 ====


Potencias inyectadas calculadas con las tensiones actuales:
U: ComplexF64[1.0 + 0.0im, 1.0964288684791321 + 0.00653076974163437im, 1.0982192887955091 + 0.003270688091589221im]
Piny_new: [0.0, 0.10116910199170354, -0.0031545236594625933]
Qiny_new: [0.0, 1.038282684297245, 1.0983262630386326]

Desbalances de potencias:
ΔPiny: [0.0, -0.011824147249098749, 0.0031545236594625933]
ΔQiny: [0.0, -0.0915579105842208, -0.09832626303863257]

Desbalances de ángulos y tensiones (vector columna):
Δθ: [-0.0006, -0.0002]
ΔV: [-0.0079, -0.008]

Tensiones actualizadas (módulos y ángulos):

====Iteración Newton-Raphson: 3 ====


Potencias inyectadas calculadas con las tensiones actuales:
U: ComplexF64[1.0 + 0.0im, 1.0885808124957894 + 0.005875874200069651im, 1.0901842124363497 + 0.0030643509408658435im]
Piny_new: [0.0, 0.08945865850267824, -5.64070933172335e-5]
Qiny_new: [0.0, 0.9473298848274938, 1.0006618066327861]

Desbalances de potencias:
ΔPiny: [0.0, -0.00011370376007345528, 5.64070933172335e-5]
ΔQiny: [0.0, -0.000605111114469592, -0.0006618066327861438]

Desbalances de ángulos y tensiones (vector columna):
Δθ: [-0.0, -0.0]
ΔV: [-0.0001, -0.0001]

Tensiones actualizadas (módulos y ángulos):

====Iteración Newton-Raphson: 4 ====


Potencias inyectadas calculadas con las tensiones actuales:
U: ComplexF64[1.0 + 0.0im, 1.0885279288978764 + 0.0058703851016784145im, 1.0901297052645282 + 0.0030641106298032517im]
Piny_new: [0.0, 0.08934496284587091, -5.531047059653868e-9]
Qiny_new: [0.0, 0.946724801149675, 1.0000000307258894]

Desbalances de potencias:
ΔPiny: [0.0, -8.103266127545972e-9, 5.531047059653868e-9]
ΔQiny: [0.0, -2.7436650840151344e-8, -3.072588938834997e-8]

¡Convergencia alcanzada!

****Resultados finales****

1. Tensiones finales:
Nodo 1: V = 1.0∠0.0°
Nodo 2: V = 1.0885∠0.3094°
Nodo 3: V = 1.0901∠0.1604°

2. Potencias generadas por el slack:
Pgen_slack: 0.2106550426851844 p.u.
Qgen_slack: -1.786576341624043 p.u.

3. Pérdidas totales:
P_totales: -2.5722108054626602e-9 p.u.
Q_totales: 0.7543445136260206 p.u.

Violaciones de tensión: 0.0

Tensiones de la línea 1-2:

Corrientes de la línea 1-2:
I_1 = 0.8872∠93.7935°
I_2 = 0.8872∠-86.2065°

Potencias aparentes de la línea 1-2:
S_1 = -0.05869999999999999 - 0.8852999999999991im
S_2 = 0.05869999999999999 + 0.9640201779999991im

Violación de flujo en la línea 1-2: 0.0

Tensiones de la línea 1-3:

Corrientes de la línea 1-3:
I_1 = 0.9018∠91.9445°
I_3 = 0.9018∠-88.0555°

Potencias aparentes de la línea 1-3:
S_1 = -0.030599999999999992 - 0.9013000000000009im
S_3 = 0.03059999999999999 + 0.982627805000001im

Violación de flujo en la línea 1-3: 0.0

Tensiones de la línea 2-3:

Corrientes de la línea 2-3:
I_2 = 4.4441∠62.6116°
I_3 = 3.1595∠17.1368°

Potencias aparentes de la línea 2-3:
S_2 = 2.24069350836965 - 4.295321306434497im
S_3 = 3.2919700055909393 - 0.9956499000974598im

Violación de flujo en la línea 2-3: 0.0

Pérdidas totales:
P_totales = 5.532663513960589
Q_totales = -5.130923223531957

Información de Generadores:
----------------------------

Generador 1:
Estado u: 0.344
P inicial: 0.21 MW
Q inicial: -1.79 MVAr
Límites P: [10, 50] MW
Límites Q: [-100, 100] MVAr
P ajustada: 0.21 MW
Q ajustada: -1.79 MVAr
Estado: Encendido

Generador 2:
Estado u: 0.8787
P inicial: 0.49 MW
Q inicial: 0.95 MVAr
Límites P: [10, 50] MW
Límites Q: [-100, 100] MVAr
P ajustada: 0.49 MW
Q ajustada: 0.95 MVAr
Estado: Encendido

Generador 3:
Estado u: 1.0
P inicial: 0.2 MW
Q inicial: 1.0 MVAr
Límites P: [5, 20] MW
Límites Q: [-100, 100] MVAr
P ajustada: 0.2 MW
Q ajustada: 1.0 MVAr
Estado: Encendido
fitValue: 35.78689904340788

Mejor fitness actual: 35.56961945066809
Iteraciones sin mejora: 4

=========== Iteración 6 ==============

Actualizando partícula 1

Comprobación de potencias generadas y demandadas:
Pd: [0.3, 0.4, 0.2]
Qd: [0.0, 0.0, 0.0]
Pgen: [0.0, 0.5, 0.2]
Qgen: [0.0, 1.0, 1.0]

Potencias activas inyectadas reales:
Piny: [-0.3, 0.09999999999999998, 0.0]

Potencias reactivas inyectadas:
Qiny: [0.0, 1.0, 1.0]

====Iteración Newton-Raphson: 1 ====


Potencias inyectadas calculadas con las tensiones actuales:
U: ComplexF64[1.0 + 0.0im, 1.0 + 0.0im, 1.0 + 0.0im]
Piny_new: [0.0, 2.449293598294706e-15, 2.449293598294706e-15]
Qiny_new: [0.0, 0.0, 0.0]

Desbalances de potencias:
ΔPiny: [0.0, 0.09999999999999754, -2.449293598294706e-15]
ΔQiny: [0.0, 1.0, 1.0]

Desbalances de ángulos y tensiones (vector columna):
Δθ: [0.0067, 0.0033]
ΔV: [0.1, 0.1]

Tensiones actualizadas (módulos y ángulos):

====Iteración Newton-Raphson: 2 ====


Potencias inyectadas calculadas con las tensiones actuales:
U: ComplexF64[1.0 + 0.0im, 1.0999755556460906 + 0.007333279012466079im, 1.0999938888945475 + 0.0036666598765466665im]
Piny_new: [0.0, 0.11366604876668138, -0.0036666598765490747]
Qiny_new: [0.0, 1.1003116656990837, 1.1001283332144998]

Desbalances de potencias:
ΔPiny: [0.0, -0.013666048766681399, 0.0036666598765490747]
ΔQiny: [0.0, -0.10031166569908367, -0.10012833321449977]

Desbalances de ángulos y tensiones (vector columna):
Δθ: [-0.0006, -0.0002]
ΔV: [-0.0083, -0.0083]

Tensiones actualizadas (módulos y ángulos):

====Iteración Newton-Raphson: 3 ====


Potencias inyectadas calculadas con las tensiones actuales:
U: ComplexF64[1.0 + 0.0im, 1.091630376953985 + 0.006577402362897846im, 1.0916489794875026 + 0.0034295518899555653im]
Piny_new: [0.0, 0.10013813917618779, -6.859664764743189e-5]
Qiny_new: [0.0, 1.0007016274502076, 1.0006978847496029]

Desbalances de potencias:
ΔPiny: [0.0, -0.0001381391761878098, 6.859664764743189e-5]
ΔQiny: [0.0, -0.0007016274502076314, -0.0006978847496028617]

Desbalances de ángulos y tensiones (vector columna):
Δθ: [-0.0, -0.0]
ΔV: [-0.0001, -0.0001]

Tensiones actualizadas (módulos y ángulos):

====Iteración Newton-Raphson: 4 ====


Potencias inyectadas calculadas con las tensiones actuales:
U: ComplexF64[1.0 + 0.0im, 1.0915712639928197 + 0.006570736711812616im, 1.0915899281053485 + 0.0034292636355253703im]
Piny_new: [0.0, 0.10000001085464603, -7.381260048024484e-9]
Qiny_new: [0.0, 1.000000035465653, 1.0000000350264453]

Desbalances de potencias:
ΔPiny: [0.0, -1.085464605699027e-8, 7.381260048024484e-9]
ΔQiny: [0.0, -3.546565308099048e-8, -3.502644529973509e-8]

¡Convergencia alcanzada!

****Resultados finales****

1. Tensiones finales:
Nodo 1: V = 1.0∠0.0°
Nodo 2: V = 1.0916∠0.3438°
Nodo 3: V = 1.0916∠0.1776°

2. Potencias generadas por el slack:
Pgen_slack: 0.1999999965266223 p.u.
Qgen_slack: -1.8316119209816826 p.u.

3. Pérdidas totales:
P_totales: -3.473377724327875e-9 p.u.
Q_totales: 0.7641782445133785 p.u.

Violaciones de tensión: 0.0

Tensiones de la línea 1-2:

Corrientes de la línea 1-2:
I_1 = 0.9181∠94.1038°
I_2 = 0.9181∠-85.8962°

Potencias aparentes de la línea 1-2:
S_1 = -0.0657 - 0.9156999999999993im
S_2 = 0.0657 + 0.9999822979999992im

Violación de flujo en la línea 1-2: 0.0

Tensiones de la línea 1-3:

Corrientes de la línea 1-3:
I_1 = 0.9165∠92.1447°
I_3 = 0.9165∠-87.8553°

Potencias aparentes de la línea 1-3:
S_1 = -0.03429999999999999 - 0.9159000000000006im
S_3 = 0.03429999999999999 + 0.9999049300000007im

Violación de flujo en la línea 1-3: 0.0

Tensiones de la línea 2-3:

Corrientes de la línea 2-3:
I_2 = 4.4626∠62.7615°
I_3 = 3.1668∠16.8812°

Potencias aparentes de la línea 2-3:
S_2 = 2.2431911842709003 - 4.324134993096997im
S_3 = 3.3138298508785398 - 0.98388990334586im

Violación de flujo en la línea 2-3: 0.0

Pérdidas totales:
P_totales = 5.55702103514944
Q_totales = -5.139737668442857

Información de Generadores:
----------------------------

Generador 1:
Estado u: 0.312
P inicial: 0.2 MW
Q inicial: -1.83 MVAr
Límites P: [10, 50] MW
Límites Q: [-100, 100] MVAr
P ajustada: 0.2 MW
Q ajustada: -1.83 MVAr
Estado: Encendido

Generador 2:
Estado u: 1.0
P inicial: 0.5 MW
Q inicial: 1.0 MVAr
Límites P: [10, 50] MW
Límites Q: [-100, 100] MVAr
P ajustada: 0.5 MW
Q ajustada: 1.0 MVAr
Estado: Encendido

Generador 3:
Estado u: 1.0
P inicial: 0.2 MW
Q inicial: 1.0 MVAr
Límites P: [5, 20] MW
Límites Q: [-100, 100] MVAr
P ajustada: 0.2 MW
Q ajustada: 1.0 MVAr
Estado: Encendido
fitValue: 35.99999993053245

Actualizando partícula 2

Comprobación de potencias generadas y demandadas:
Pd: [0.3, 0.4, 0.2]
Qd: [0.0, 0.0, 0.0]
Pgen: [0.0, 0.5, 0.2]
Qgen: [0.0, 1.0, 1.0]

Potencias activas inyectadas reales:
Piny: [-0.3, 0.09999999999999998, 0.0]

Potencias reactivas inyectadas:
Qiny: [0.0, 1.0, 1.0]

====Iteración Newton-Raphson: 1 ====


Potencias inyectadas calculadas con las tensiones actuales:
U: ComplexF64[1.0 + 0.0im, 1.0 + 0.0im, 1.0 + 0.0im]
Piny_new: [0.0, 2.449293598294706e-15, 2.449293598294706e-15]
Qiny_new: [0.0, 0.0, 0.0]

Desbalances de potencias:
ΔPiny: [0.0, 0.09999999999999754, -2.449293598294706e-15]
ΔQiny: [0.0, 1.0, 1.0]

Desbalances de ángulos y tensiones (vector columna):
Δθ: [0.0067, 0.0033]
ΔV: [0.1, 0.1]

Tensiones actualizadas (módulos y ángulos):

====Iteración Newton-Raphson: 2 ====


Potencias inyectadas calculadas con las tensiones actuales:
U: ComplexF64[1.0 + 0.0im, 1.0999755556460906 + 0.007333279012466079im, 1.0999938888945475 + 0.0036666598765466665im]
Piny_new: [0.0, 0.11366604876668138, -0.0036666598765490747]
Qiny_new: [0.0, 1.1003116656990837, 1.1001283332144998]

Desbalances de potencias:
ΔPiny: [0.0, -0.013666048766681399, 0.0036666598765490747]
ΔQiny: [0.0, -0.10031166569908367, -0.10012833321449977]

Desbalances de ángulos y tensiones (vector columna):
Δθ: [-0.0006, -0.0002]
ΔV: [-0.0083, -0.0083]

Tensiones actualizadas (módulos y ángulos):

====Iteración Newton-Raphson: 3 ====


Potencias inyectadas calculadas con las tensiones actuales:
...